CM 
CE
SY h=0.23
SY radius=0.01
GW	1	11	0	0	0	0	0	h	radius
GE	1
GN	1
EK
EX	0	1	1	0	1	0	0
FR	0	0	0	0	300	0
EN
